data/nesta/api/nesta_case9_wscc__api.m
%%%%%%%%%%%%%%%%%%%%%%%%%%%%%%%%%%%%%%%%%%%%%%%%%%%%%%%%%%%%%%%%%%%%%%%%%%%
%%%%                                                                  %%%%%
%%%%      NICTA Energy System Test Case Archive (NESTA) - v0.1.5      %%%%%
%%%%            Optimal Power Flow - Active Power Increase            %%%%%
%%%%                       30 - October - 2014                        %%%%%
%%%%                                                                  %%%%%
%%%%%%%%%%%%%%%%%%%%%%%%%%%%%%%%%%%%%%%%%%%%%%%%%%%%%%%%%%%%%%%%%%%%%%%%%%%
function mpc = nesta_case9_wscc__api
mpc.version = '2';
mpc.baseMVA = 100.0;

%% area data
%	area	refbus
mpc.areas = [
	1	 5;
];

%% bus data
%	bus_i	type	Pd	Qd	Gs	Bs	area	Vm	Va	baseKV	zone	Vmax	Vmin
mpc.bus = [
	1	 3	 0.00	 0.00	 0.0	 0.0	 1	     1.0000	     0.0000	 345.0	 1	     1.1000	     0.9000;
	2	 2	 0.00	 0.00	 0.0	 0.0	 1	     1.0000	     0.0000	 345.0	 1	     1.1000	     0.9000;
	3	 2	 0.00	 0.00	 0.0	 0.0	 1	     1.0000	     0.0000	 345.0	 1	     1.1000	     0.9000;
	4	 1	 0.00	 0.00	 0.0	 0.0	 1	     1.0000	     0.0000	 345.0	 1	     1.1000	     0.9000;
	5	 1	 215.83	 30.00	 0.0	 0.0	 1	     1.0000	     0.0000	 345.0	 1	     1.1000	     0.9000;
	6	 1	 0.00	 0.00	 0.0	 0.0	 1	     1.0000	     0.0000	 345.0	 1	     1.1000	     0.9000;
	7	 1	 239.81	 35.00	 0.0	 0.0	 1	     1.0000	     0.0000	 345.0	 1	     1.1000	     0.9000;
	8	 1	 0.00	 0.00	 0.0	 0.0	 1	     1.0000	     0.0000	 345.0	 1	     1.1000	     0.9000;
	9	 1	 299.76	 50.00	 0.0	 0.0	 1	     1.0000	     0.0000	 345.0	 1	     1.1000	     0.9000;
];

%% generator data
%	bus	Pg	Qg	Qmax	Qmin	Vg	mBase	status	Pmax	Pmin	Pc1	Pc2	Qc1min	Qc1max	Qc2min	Qc2max	ramp_agc	ramp_10	ramp_30	ramp_q	apf
mpc.gen = [
	1	 237.0	 81.0	 300.0	 -300.0	 1.0	 100.0	 1	 247	 5.0	 0.0	 0.0	 0.0	 0.0	 0.0	 0.0	 0.0	 0.0	 0.0	 0.0	 0.0; % NG
	2	 244.0	 57.0	 300.0	 -300.0	 1.0	 100.0	 1	 339	 5.0	 0.0	 0.0	 0.0	 0.0	 0.0	 0.0	 0.0	 0.0	 0.0	 0.0	 0.0; % NG
	3	 296.0	 50.0	 300.0	 -300.0	 1.0	 100.0	 1	 452	 5.0	 0.0	 0.0	 0.0	 0.0	 0.0	 0.0	 0.0	 0.0	 0.0	 0.0	 0.0; % COW
];

%% generator cost data
%	2	startup	shutdown	n	c(n-1)	...	c0
mpc.gencost = [
	2	 1500.0	 0.0	 3	   0.000000	   1.072537	   0.000000; % NG
	2	 2000.0	 0.0	 3	   0.000000	   0.959852	   0.000000; % NG
	2	 3000.0	 0.0	 3	   0.000000	   0.574506	   0.000000; % COW
];

%% branch data
%	fbus	tbus	r	x	b	rateA	rateB	rateC	ratio	angle	status	angmin	angmax
mpc.branch = [
	1	 4	 0.0	 0.0576	 0.0	 250.0	 250.0	 250.0	 0.0	 0.0	 1	 -30.0	 30.0;
	4	 5	 0.017	 0.092	 0.158	 250.0	 250.0	 250.0	 0.0	 0.0	 1	 -30.0	 30.0;
	5	 6	 0.039	 0.17	 0.358	 150.0	 150.0	 150.0	 0.0	 0.0	 1	 -30.0	 30.0;
	3	 6	 0.0	 0.0586	 0.0	 300.0	 300.0	 300.0	 0.0	 0.0	 1	 -30.0	 30.0;
	6	 7	 0.0119	 0.1008	 0.209	 150.0	 150.0	 150.0	 0.0	 0.0	 1	 -30.0	 30.0;
	7	 8	 0.0085	 0.072	 0.149	 250.0	 250.0	 250.0	 0.0	 0.0	 1	 -30.0	 30.0;
	8	 2	 0.0	 0.0625	 0.0	 250.0	 250.0	 250.0	 0.0	 0.0	 1	 -30.0	 30.0;
	8	 9	 0.032	 0.161	 0.306	 250.0	 250.0	 250.0	 0.0	 0.0	 1	 -30.0	 30.0;
	9	 4	 0.01	 0.085	 0.176	 250.0	 250.0	 250.0	 0.0	 0.0	 1	 -30.0	 30.0;
];

% INFO    : === Translation Options ===
% INFO    : Load Model:                  from file ./nesta_case9_wscc.dat.sol
% INFO    : Gen Active Capacity Model:   stat
% INFO    : Gen Reactive Capacity Model: al50ag
% INFO    : Gen Active Cost Model:       stat
% INFO    : 
% INFO    : === Load Replacement Notes ===
% INFO    : Bus 1	: Pd=0.0, Qd=0.0 -> Pd=0.00, Qd=0.00
% INFO    : Bus 2	: Pd=0.0, Qd=0.0 -> Pd=0.00, Qd=0.00
% INFO    : Bus 3	: Pd=0.0, Qd=0.0 -> Pd=0.00, Qd=0.00
% INFO    : Bus 4	: Pd=0.0, Qd=0.0 -> Pd=0.00, Qd=0.00
% INFO    : Bus 5	: Pd=90.0, Qd=30.0 -> Pd=215.83, Qd=30.00
% INFO    : Bus 6	: Pd=0.0, Qd=0.0 -> Pd=0.00, Qd=0.00
% INFO    : Bus 7	: Pd=100.0, Qd=35.0 -> Pd=239.81, Qd=35.00
% INFO    : Bus 8	: Pd=0.0, Qd=0.0 -> Pd=0.00, Qd=0.00
% INFO    : Bus 9	: Pd=125.0, Qd=50.0 -> Pd=299.76, Qd=50.00
% INFO    : 
% INFO    : === Generator Setpoint Replacement Notes ===
% INFO    : Gen at bus 1	: Pg=0.0, Qg=0.0 -> Pg=237.0, Qg=81.0
% INFO    : Gen at bus 2	: Pg=163.0, Qg=0.0 -> Pg=244.0, Qg=57.0
% INFO    : Gen at bus 3	: Pg=85.0, Qg=0.0 -> Pg=296.0, Qg=50.0
% INFO    : 
% INFO    : === Generator Reactive Capacity Atleast Setpoint Value Notes ===
% INFO    : 
% INFO    : === Generator Classification Notes ===
% INFO    : COW    1   -    38.10
% INFO    : NG     2   -    61.90
% INFO    : 
% INFO    : === Generator Active Capacity Stat Model Notes ===
% INFO    : Gen at bus 1 - NG	: Pg=237.0, Pmax=250.0 -> Pmax=247   samples: 6
% INFO    : Gen at bus 2 - NG	: Pg=244.0, Pmax=300.0 -> Pmax=339   samples: 7
% INFO    : Gen at bus 3 - COW	: Pg=296.0, Pmax=270.0 -> Pmax=452   samples: 2
% INFO    : 
% INFO    : === Generator Active Capacity LB Model Notes ===
% INFO    : Gen at bus 1	: Pmin=10.0 -> Pmin=5.0 
% INFO    : Gen at bus 2	: Pmin=10.0 -> Pmin=5.0 
% INFO    : Gen at bus 3	: Pmin=10.0 -> Pmin=5.0 
% INFO    : 
% INFO    : === Generator Reactive Capacity Atleast Max 50 Percent Active Model Notes ===
% INFO    : 
% INFO    : === Generator Active Cost Stat Model Notes ===
% INFO    : Updated Generator Cost: NG - 150.0 5.0 0.11 -> 0 1.07253713335 0
% INFO    : Updated Generator Cost: NG - 600.0 1.2 0.085 -> 0 0.959851972298 0
% INFO    : Updated Generator Cost: COW - 335.0 1.0 0.1225 -> 0 0.574506422824 0
% INFO    : 
% INFO    : === Writing Matpower Case File Notes ===
